Version 4
SHEET 1 4468 980
WIRE 448 -928 -192 -928
WIRE 576 -928 448 -928
WIRE 720 -928 656 -928
WIRE 880 -928 800 -928
WIRE 944 -928 880 -928
WIRE 1104 -928 1024 -928
WIRE 1312 -928 1104 -928
WIRE 448 -816 448 -928
WIRE -192 -688 -192 -928
WIRE 448 -672 448 -736
WIRE 448 -640 448 -672
WIRE 576 -624 480 -624
WIRE 688 -624 656 -624
WIRE 80 -560 32 -560
WIRE 192 -560 160 -560
WIRE 288 -560 272 -560
WIRE 384 -560 368 -560
WIRE 400 -560 384 -560
WIRE 32 -528 32 -560
WIRE 432 -528 432 -544
WIRE 432 -528 384 -528
WIRE 448 -512 448 -544
WIRE 384 -464 384 -528
WIRE 256 -448 32 -448
WIRE 384 -448 384 -464
WIRE 384 -448 336 -448
WIRE 448 -432 448 -512
WIRE 448 -320 448 -352
WIRE 1104 -288 1104 -928
WIRE 448 -224 448 -240
WIRE 880 -208 880 -928
WIRE 1312 -144 1312 -928
WIRE -192 -128 -192 -608
WIRE 448 -128 448 -144
WIRE 448 -128 -192 -128
WIRE 1104 -128 1104 -208
WIRE 448 -80 448 -128
WIRE 448 48 448 0
WIRE 448 64 448 48
WIRE 1104 64 1104 -48
WIRE 544 80 480 80
WIRE 640 80 624 80
WIRE 96 144 32 144
WIRE 240 144 176 144
WIRE 368 144 320 144
WIRE 400 144 368 144
WIRE -48 160 -48 144
WIRE -48 176 -48 160
WIRE 432 176 432 160
WIRE 432 176 384 176
WIRE 384 224 384 176
WIRE 448 224 448 160
WIRE 0 256 -48 256
WIRE 224 256 0 256
WIRE 384 256 384 224
WIRE 384 256 304 256
WIRE 448 288 448 224
WIRE 448 432 448 368
WIRE 448 512 448 496
WIRE 448 544 448 512
WIRE 448 672 448 624
WIRE 544 672 448 672
WIRE 880 672 880 -144
WIRE 880 672 624 672
WIRE 960 672 880 672
WIRE 1104 672 1104 128
WIRE 1104 672 1040 672
WIRE 1312 672 1312 -64
WIRE 1312 672 1104 672
WIRE 448 720 448 672
FLAG 640 80 0
FLAG 688 -624 0
FLAG 448 720 0
FLAG 448 -672 Vd_H
FLAG 448 48 Vd_L
FLAG 448 -512 Vs_H
FLAG 384 -560 Vg_H
FLAG 384 -464 Vks_H
FLAG 384 224 Vks_L
FLAG 448 224 Vs_L
FLAG 368 144 Vg_L
FLAG -48 160 Vin_P
FLAG 0 256 Vin_N
SYMBOL voltage 1312 -160 R0
WINDOW 123 0 0 Left 0
WINDOW 39 24 44 Left 2
SYMATTR SpiceLine Rser=1
SYMATTR InstName VOUT
SYMATTR Value 800
SYMBOL cap 1088 64 R0
SYMATTR InstName C1
SYMATTR Value 1000µ
SYMBOL res 336 128 R90
WINDOW 0 0 56 VBottom 2
WINDOW 3 32 56 VTop 2
SYMATTR InstName R3
SYMATTR Value 10
SYMBOL voltage 528 80 R270
WINDOW 123 0 0 Left 0
WINDOW 39 0 0 Left 0
SYMATTR InstName V4
SYMATTR Value 25
SYMBOL res 384 -576 R90
WINDOW 0 0 56 VBottom 2
WINDOW 3 32 56 VTop 2
SYMATTR InstName R8
SYMATTR Value 2
SYMBOL voltage 560 -624 R270
WINDOW 123 0 0 Left 0
WINDOW 39 0 0 Left 0
SYMATTR InstName V5
SYMATTR Value 25
SYMBOL voltage -48 160 R0
WINDOW 3 24 44 Invisible 2
WINDOW 123 0 0 Left 0
WINDOW 39 0 0 Left 0
WINDOW 0 -69 49 Left 2
SYMATTR Value PWL(0 -4 +5u -4 +10n 15 +{Lo*IL/Vo} 15 +10n -4 +2u -4 +10n 15 +5u 15 +10n -4 +10u -4 +10n 15 +10u 15 +10n -4 +10u -4 +10n 15 +10u 15 +10n -4 +10u -4 +10n 15 +10u 15 +10n -4 +10u -4)
SYMATTR InstName Vin
SYMBOL voltage 32 -544 R0
WINDOW 3 -87 76 Left 2
WINDOW 123 0 0 Left 0
WINDOW 39 0 0 Left 0
WINDOW 0 -79 41 Left 2
SYMATTR Value -4
SYMATTR InstName VH
SYMBOL ind 432 -96 R0
SYMATTR InstName LMID2
SYMATTR Value 5n
SYMATTR SpiceLine Rser=1u
SYMBOL ind 560 -912 R270
WINDOW 0 32 56 VTop 2
WINDOW 3 5 56 VBottom 2
SYMATTR InstName LSTRAY
SYMATTR Value 20n
SYMATTR SpiceLine Rser=1u
SYMBOL ind2 464 528 R180
WINDOW 0 36 80 Left 2
WINDOW 3 36 40 Left 2
SYMATTR InstName LS
SYMATTR Value 500p
SYMATTR SpiceLine Rser=1u
SYMATTR Type ind
SYMBOL ind 432 -832 R0
SYMATTR InstName LH
SYMATTR Value 5n
SYMATTR SpiceLine Rser=1u
SYMBOL ind 432 -240 R0
SYMATTR InstName LMID1
SYMATTR Value 5n
SYMATTR SpiceLine Rser=1u
SYMBOL res 1088 -304 R0
SYMATTR InstName R1
SYMATTR Value 0.1
SYMBOL ind 528 688 R270
WINDOW 0 48 56 VTop 2
WINDOW 3 5 56 VBottom 2
SYMATTR InstName Ldc1-
SYMATTR Value 5n
SYMATTR SpiceLine Rser=1u
SYMBOL ind 704 -912 R270
WINDOW 0 32 56 VTop 2
WINDOW 3 5 56 VBottom 2
SYMATTR InstName Ldc2+
SYMATTR Value 5n
SYMATTR SpiceLine Rser=1u
SYMBOL ind 928 -912 R270
WINDOW 0 32 56 VTop 2
WINDOW 3 5 56 VBottom 2
SYMATTR InstName L3
SYMATTR Value 100n
SYMATTR SpiceLine Rser=1u
SYMBOL ind 944 688 R270
WINDOW 0 32 56 VTop 2
WINDOW 3 5 56 VBottom 2
SYMATTR InstName L4
SYMATTR Value 5n
SYMATTR SpiceLine Rser=1u
SYMBOL ind 64 -544 R270
WINDOW 0 32 56 VTop 2
WINDOW 3 5 56 VBottom 2
SYMATTR InstName L1
SYMATTR Value 10n
SYMBOL ind2 -64 160 R270
WINDOW 0 32 56 VTop 2
WINDOW 3 5 56 VBottom 2
SYMATTR InstName L2
SYMATTR Value 10n
SYMATTR Type ind
SYMBOL cap 864 -208 R0
SYMATTR InstName C3
SYMATTR Value 10µ
SYMBOL ind 432 528 R0
SYMATTR InstName LS1
SYMATTR Value 5n
SYMATTR SpiceLine Rser=1u
SYMBOL ind 1088 -144 R0
SYMATTR InstName L5
SYMATTR Value 10n
SYMBOL ind -208 -704 R0
SYMATTR InstName Lload
SYMATTR Value {Lo}
SYMBOL ind 432 -336 R0
SYMATTR InstName LMID3
SYMATTR Value 500p
SYMATTR SpiceLine Rser=1u
SYMBOL ind 352 -464 R90
WINDOW 0 5 56 VBottom 2
WINDOW 3 32 56 VTop 2
SYMATTR InstName Lss
SYMATTR Value 5n
SYMATTR SpiceLine Rser=1u
SYMBOL ind 320 240 R90
WINDOW 0 4 56 VBottom 2
WINDOW 3 32 56 VTop 2
SYMATTR InstName Lss2
SYMATTR Value 5n
SYMATTR SpiceLine Rser=1u
SYMBOL Contrib\\Wolfspeed\\Discrete\\C3M0040120K 400 -640 R0
WINDOW 3 148 57 Left 2
SYMATTR InstName U1
SYMBOL Contrib\\Wolfspeed\\Discrete\\C3M0040120K 400 64 R0
WINDOW 3 149 61 Left 2
SYMATTR InstName U2
SYMBOL res 80 160 R270
WINDOW 0 32 56 VTop 2
WINDOW 3 0 56 VBottom 2
SYMATTR InstName Ig_L
SYMATTR Value 1m
SYMBOL res 176 -544 R270
WINDOW 0 32 56 VTop 2
WINDOW 3 0 56 VBottom 2
SYMATTR InstName Ig_H
SYMATTR Value 1m
SYMBOL res 432 -448 R0
SYMATTR InstName Id_H
SYMATTR Value 1m
SYMBOL res 432 272 R0
SYMATTR InstName Id_L
SYMATTR Value 1m
TEXT 56 -1072 Left 2 !.tran 0 24u 0 1n
TEXT 264 -1080 Left 2 !.param IL=40\n.param Vo=800 Lo=120u
TEXT 72 -1008 Left 2 ;BY PNJIE 2025.4.21 V0.0
